<?xml version="1.0" encoding="UTF-8"?>

<!-- generated on Wed Jul 29 16:21:58 2020 by Eclipse SUMO netconvert Version 1.4.0
<configuration xmlns:xsi="http://www.w3.org/2001/XMLSchema-instance" xsi:noNamespaceSchemaLocation="http://sumo.dlr.de/xsd/netconvertConfiguration.xsd">

    <input>
        <node-files value="node.nod.xml"/>
        <edge-files value="edge.edg.xml"/>
        <type-files value="type.typ.xml"/>
    </input>

    <output>
        <output-file value="net.net.xml"/>
    </output>

    <report>
        <aggregate-warnings value="5"/>
    </report>

</configuration>
-->

<net version="1.3" junctionCornerDetail="5" limitTurnSpeed="5.50" xmlns:xsi="http://www.w3.org/2001/XMLSchema-instance" xsi:noNamespaceSchemaLocation="http://sumo.dlr.de/xsd/net_file.xsd">

    <location netOffset="-200.00,-200.00" convBoundary="0.00,0.00,800.00,600.00" origBoundary="200.00,200.00,1000.00,800.00" projParameter="!"/>

    <type id="2L60" priority="1" numLanes="2" speed="80.00"/>

    <edge id=":n1_0" function="internal">
        <lane id=":n1_0_0" index="0" speed="6.08" length="7.74" shape="-4.80,200.00 -4.50,197.90 -3.60,196.40 -2.10,195.50 0.00,195.20"/>
    </edge>
    <edge id=":n1_1" function="internal">
        <lane id=":n1_1_0" index="0" speed="3.90" length="2.58" shape="-1.60,200.00 -1.50,199.30 -1.20,198.80 -0.70,198.50 0.00,198.40"/>
    </edge>
    <edge id=":n10_0" function="internal">
        <lane id=":n10_0_0" index="0" speed="3.90" length="2.58" shape="793.60,395.20 794.30,395.10 794.80,394.80 795.10,394.30 795.20,393.60"/>
    </edge>
    <edge id=":n10_1" function="internal">
        <lane id=":n10_1_0" index="0" speed="6.08" length="7.74" shape="793.60,398.40 795.70,398.10 797.20,397.20 798.10,395.70 798.40,393.60"/>
    </edge>
    <edge id=":n11_0" function="internal">
        <lane id=":n11_0_0" index="0" speed="3.90" length="2.58" shape="795.20,6.40 795.10,5.70 794.80,5.20 794.30,4.90 793.60,4.80"/>
    </edge>
    <edge id=":n11_1" function="internal">
        <lane id=":n11_1_0" index="0" speed="6.08" length="7.74" shape="798.40,6.40 798.10,4.30 797.20,2.80 795.70,1.90 793.60,1.60"/>
    </edge>
    <edge id=":n12_0" function="internal">
        <lane id=":n12_0_0" index="0" speed="6.08" length="7.74" shape="0.00,604.80 -2.10,604.50 -3.60,603.60 -4.50,602.10 -4.80,600.00"/>
    </edge>
    <edge id=":n12_1" function="internal">
        <lane id=":n12_1_0" index="0" speed="3.90" length="2.58" shape="0.00,601.60 -0.70,601.50 -1.20,601.20 -1.50,600.70 -1.60,600.00"/>
    </edge>
    <edge id=":n2_0" function="internal">
        <lane id=":n2_0_0" index="0" speed="3.90" length="2.58" shape="206.40,4.80 205.70,4.90 205.20,5.20 204.90,5.70 204.80,6.40"/>
    </edge>
    <edge id=":n2_1" function="internal">
        <lane id=":n2_1_0" index="0" speed="6.08" length="7.74" shape="206.40,1.60 204.30,1.90 202.80,2.80 201.90,4.30 201.60,6.40"/>
    </edge>
    <edge id=":n3_0" function="internal">
        <lane id=":n3_0_0" index="0" speed="6.51" length="9.03" shape="204.80,189.60 205.15,192.05 206.20,193.80 207.95,194.85 210.40,195.20"/>
    </edge>
    <edge id=":n3_1" function="internal">
        <lane id=":n3_1_0" index="0" speed="80.00" length="14.40" shape="204.80,189.60 204.80,204.00"/>
        <lane id=":n3_1_1" index="1" speed="80.00" length="14.40" shape="201.60,189.60 201.60,204.00"/>
    </edge>
    <edge id=":n3_3" function="internal">
        <lane id=":n3_3_0" index="0" speed="80.00" length="14.40" shape="196.00,195.20 210.40,195.20"/>
        <lane id=":n3_3_1" index="1" speed="80.00" length="14.40" shape="196.00,198.40 210.40,198.40"/>
    </edge>
    <edge id=":n3_5" function="internal">
        <lane id=":n3_5_0" index="0" speed="6.51" length="4.28" shape="196.00,198.40 198.45,198.75 200.00,199.68"/>
    </edge>
    <edge id=":n3_6" function="internal">
        <lane id=":n3_6_0" index="0" speed="6.51" length="4.75" shape="200.00,199.68 200.20,199.80 201.25,201.55 201.60,204.00"/>
    </edge>
    <edge id=":n4_0" function="internal">
        <lane id=":n4_0_0" index="0" speed="3.90" length="2.58" shape="204.80,393.60 204.90,394.30 205.20,394.80 205.70,395.10 206.40,395.20"/>
    </edge>
    <edge id=":n4_1" function="internal">
        <lane id=":n4_1_0" index="0" speed="6.08" length="7.74" shape="201.60,393.60 201.90,395.70 202.80,397.20 204.30,398.10 206.40,398.40"/>
    </edge>
    <edge id=":n5_0" function="internal">
        <lane id=":n5_0_0" index="0" speed="80.00" length="14.40" shape="396.00,195.20 410.40,195.20"/>
        <lane id=":n5_0_1" index="1" speed="80.00" length="14.40" shape="396.00,198.40 410.40,198.40"/>
    </edge>
    <edge id=":n5_2" function="internal">
        <lane id=":n5_2_0" index="0" speed="7.33" length="11.73" shape="396.00,198.40 399.85,198.75 402.60,199.80 404.25,201.55 404.80,204.00"/>
    </edge>
    <edge id=":n5_3" function="internal">
        <lane id=":n5_3_0" index="0" speed="6.51" length="9.03" shape="396.00,198.40 398.45,198.75 400.20,199.80 401.25,201.55 401.60,204.00"/>
    </edge>
    <edge id=":n6_0" function="internal">
        <lane id=":n6_0_0" index="0" speed="6.51" length="9.03" shape="404.80,389.60 405.15,392.05 406.20,393.80 407.95,394.85 410.40,395.20"/>
    </edge>
    <edge id=":n6_1" function="internal">
        <lane id=":n6_1_0" index="0" speed="8.00" length="14.19" shape="401.60,389.60 402.15,393.45 403.80,396.20 406.55,397.85 410.40,398.40"/>
    </edge>
    <edge id=":n6_2" function="internal">
        <lane id=":n6_2_0" index="0" speed="80.00" length="14.40" shape="396.00,395.20 410.40,395.20"/>
        <lane id=":n6_2_1" index="1" speed="80.00" length="14.40" shape="396.00,398.40 410.40,398.40"/>
    </edge>
    <edge id=":n7_0" function="internal">
        <lane id=":n7_0_0" index="0" speed="6.08" length="7.74" shape="600.00,195.20 602.10,195.50 603.60,196.40 604.50,197.90 604.80,200.00"/>
    </edge>
    <edge id=":n7_1" function="internal">
        <lane id=":n7_1_0" index="0" speed="3.90" length="2.58" shape="600.00,198.40 600.70,198.50 601.20,198.80 601.50,199.30 601.60,200.00"/>
    </edge>
    <edge id=":n8_0" function="internal">
        <lane id=":n8_0_0" index="0" speed="6.51" length="9.03" shape="604.80,389.60 605.15,392.05 606.20,393.80 607.95,394.85 610.40,395.20"/>
    </edge>
    <edge id=":n8_1" function="internal">
        <lane id=":n8_1_0" index="0" speed="80.00" length="14.40" shape="604.80,389.60 604.80,404.00"/>
        <lane id=":n8_1_1" index="1" speed="80.00" length="14.40" shape="601.60,389.60 601.60,404.00"/>
    </edge>
    <edge id=":n8_3" function="internal">
        <lane id=":n8_3_0" index="0" speed="80.00" length="14.40" shape="596.00,395.20 610.40,395.20"/>
        <lane id=":n8_3_1" index="1" speed="80.00" length="14.40" shape="596.00,398.40 610.40,398.40"/>
    </edge>
    <edge id=":n8_5" function="internal">
        <lane id=":n8_5_0" index="0" speed="6.51" length="4.28" shape="596.00,398.40 598.45,398.75 600.00,399.68"/>
    </edge>
    <edge id=":n8_6" function="internal">
        <lane id=":n8_6_0" index="0" speed="6.51" length="4.75" shape="600.00,399.68 600.20,399.80 601.25,401.55 601.60,404.00"/>
    </edge>
    <edge id=":n9_0" function="internal">
        <lane id=":n9_0_0" index="0" speed="6.08" length="7.74" shape="604.80,600.00 604.50,602.10 603.60,603.60 602.10,604.50 600.00,604.80"/>
    </edge>
    <edge id=":n9_1" function="internal">
        <lane id=":n9_1_0" index="0" speed="3.90" length="2.58" shape="601.60,600.00 601.50,600.70 601.20,601.20 600.70,601.50 600.00,601.60"/>
    </edge>

    <edge id="10to11" from="n10" to="n11" priority="1" type="2L60">
        <lane id="10to11_0" index="0" speed="80.00" length="387.20" shape="795.20,393.60 795.20,6.40"/>
        <lane id="10to11_1" index="1" speed="80.00" length="387.20" shape="798.40,393.60 798.40,6.40"/>
    </edge>
    <edge id="11to2" from="n11" to="n2" priority="1" type="2L60">
        <lane id="11to2_0" index="0" speed="80.00" length="587.20" shape="793.60,4.80 206.40,4.80"/>
        <lane id="11to2_1" index="1" speed="80.00" length="587.20" shape="793.60,1.60 206.40,1.60"/>
    </edge>
    <edge id="12to1" from="n12" to="n1" priority="1" type="2L60">
        <lane id="12to1_0" index="0" speed="80.00" length="400.00" shape="-4.80,600.00 -4.80,200.00"/>
        <lane id="12to1_1" index="1" speed="80.00" length="400.00" shape="-1.60,600.00 -1.60,200.00"/>
    </edge>
    <edge id="1to3" from="n1" to="n3" priority="1" type="2L60">
        <lane id="1to3_0" index="0" speed="80.00" length="196.00" shape="0.00,195.20 196.00,195.20"/>
        <lane id="1to3_1" index="1" speed="80.00" length="196.00" shape="0.00,198.40 196.00,198.40"/>
    </edge>
    <edge id="2to3" from="n2" to="n3" priority="1" type="2L60">
        <lane id="2to3_0" index="0" speed="80.00" length="183.20" shape="204.80,6.40 204.80,189.60"/>
        <lane id="2to3_1" index="1" speed="80.00" length="183.20" shape="201.60,6.40 201.60,189.60"/>
    </edge>
    <edge id="3to4" from="n3" to="n4" priority="1" type="2L60">
        <lane id="3to4_0" index="0" speed="80.00" length="189.60" shape="204.80,204.00 204.80,393.60"/>
        <lane id="3to4_1" index="1" speed="80.00" length="189.60" shape="201.60,204.00 201.60,393.60"/>
    </edge>
    <edge id="3to5" from="n3" to="n5" priority="1" type="2L60">
        <lane id="3to5_0" index="0" speed="80.00" length="185.60" shape="210.40,195.20 396.00,195.20"/>
        <lane id="3to5_1" index="1" speed="80.00" length="185.60" shape="210.40,198.40 396.00,198.40"/>
    </edge>
    <edge id="4to6" from="n4" to="n6" priority="1" type="2L60">
        <lane id="4to6_0" index="0" speed="80.00" length="189.60" shape="206.40,395.20 396.00,395.20"/>
        <lane id="4to6_1" index="1" speed="80.00" length="189.60" shape="206.40,398.40 396.00,398.40"/>
    </edge>
    <edge id="5to6" from="n5" to="n6" priority="1" type="2L60">
        <lane id="5to6_0" index="0" speed="80.00" length="185.60" shape="404.80,204.00 404.80,389.60"/>
        <lane id="5to6_1" index="1" speed="80.00" length="185.60" shape="401.60,204.00 401.60,389.60"/>
    </edge>
    <edge id="5to7" from="n5" to="n7" priority="1" type="2L60">
        <lane id="5to7_0" index="0" speed="80.00" length="189.60" shape="410.40,195.20 600.00,195.20"/>
        <lane id="5to7_1" index="1" speed="80.00" length="189.60" shape="410.40,198.40 600.00,198.40"/>
    </edge>
    <edge id="6to8" from="n6" to="n8" priority="1" type="2L60">
        <lane id="6to8_0" index="0" speed="80.00" length="185.60" shape="410.40,395.20 596.00,395.20"/>
        <lane id="6to8_1" index="1" speed="80.00" length="185.60" shape="410.40,398.40 596.00,398.40"/>
    </edge>
    <edge id="7to8" from="n7" to="n8" priority="1" type="2L60">
        <lane id="7to8_0" index="0" speed="80.00" length="189.60" shape="604.80,200.00 604.80,389.60"/>
        <lane id="7to8_1" index="1" speed="80.00" length="189.60" shape="601.60,200.00 601.60,389.60"/>
    </edge>
    <edge id="8to10" from="n8" to="n10" priority="1" type="2L60">
        <lane id="8to10_0" index="0" speed="80.00" length="183.20" shape="610.40,395.20 793.60,395.20"/>
        <lane id="8to10_1" index="1" speed="80.00" length="183.20" shape="610.40,398.40 793.60,398.40"/>
    </edge>
    <edge id="8to9" from="n8" to="n9" priority="1" type="2L60">
        <lane id="8to9_0" index="0" speed="80.00" length="196.00" shape="604.80,404.00 604.80,600.00"/>
        <lane id="8to9_1" index="1" speed="80.00" length="196.00" shape="601.60,404.00 601.60,600.00"/>
    </edge>
    <edge id="9to12" from="n9" to="n12" priority="1" type="2L60">
        <lane id="9to12_0" index="0" speed="80.00" length="600.00" shape="600.00,604.80 0.00,604.80"/>
        <lane id="9to12_1" index="1" speed="80.00" length="600.00" shape="600.00,601.60 0.00,601.60"/>
    </edge>

    <junction id="n1" type="priority" x="0.00" y="200.00" incLanes="12to1_0 12to1_1" intLanes=":n1_0_0 :n1_1_0" shape="-6.40,200.00 0.00,200.00 0.00,193.60 -3.56,194.31 -4.80,195.20 -5.69,196.44 -6.22,198.04">
        <request index="0" response="00" foes="00" cont="0"/>
        <request index="1" response="00" foes="00" cont="0"/>
    </junction>
    <junction id="n10" type="priority" x="800.00" y="400.00" incLanes="8to10_0 8to10_1" intLanes=":n10_0_0 :n10_1_0" shape="800.00,393.60 793.60,393.60 793.60,400.00 797.16,399.29 798.40,398.40 799.29,397.16 799.82,395.56">
        <request index="0" response="00" foes="00" cont="0"/>
        <request index="1" response="00" foes="00" cont="0"/>
    </junction>
    <junction id="n11" type="priority" x="800.00" y="0.00" incLanes="10to11_0 10to11_1" intLanes=":n11_0_0 :n11_1_0" shape="793.60,6.40 800.00,6.40 799.29,2.84 798.40,1.60 797.16,0.71 795.56,0.18 793.60,0.00">
        <request index="0" response="00" foes="00" cont="0"/>
        <request index="1" response="00" foes="00" cont="0"/>
    </junction>
    <junction id="n12" type="priority" x="0.00" y="600.00" incLanes="9to12_0 9to12_1" intLanes=":n12_0_0 :n12_1_0" shape="0.00,606.40 0.00,600.00 -6.40,600.00 -5.69,603.56 -4.80,604.80 -3.56,605.69 -1.96,606.22">
        <request index="0" response="00" foes="00" cont="0"/>
        <request index="1" response="00" foes="00" cont="0"/>
    </junction>
    <junction id="n2" type="priority" x="200.00" y="0.00" incLanes="11to2_0 11to2_1" intLanes=":n2_0_0 :n2_1_0" shape="200.00,6.40 206.40,6.40 206.40,0.00 202.84,0.71 201.60,1.60 200.71,2.84 200.18,4.44">
        <request index="0" response="00" foes="00" cont="0"/>
        <request index="1" response="00" foes="00" cont="0"/>
    </junction>
    <junction id="n3" type="priority" x="200.00" y="200.00" incLanes="2to3_0 2to3_1 1to3_0 1to3_1" intLanes=":n3_0_0 :n3_1_0 :n3_1_1 :n3_3_0 :n3_3_1 :n3_6_0" shape="200.00,204.00 206.40,204.00 206.84,201.78 207.40,201.00 208.18,200.44 209.18,200.11 210.40,200.00 210.40,193.60 208.18,193.16 207.40,192.60 206.84,191.82 206.51,190.82 206.40,189.60 200.00,189.60 199.56,191.82 199.00,192.60 198.22,193.16 197.22,193.49 196.00,193.60 196.00,200.00 198.22,200.44 199.00,201.00 199.56,201.78 199.89,202.78">
        <request index="0" response="000000" foes="011000" cont="0"/>
        <request index="1" response="000000" foes="111000" cont="0"/>
        <request index="2" response="000000" foes="111000" cont="0"/>
        <request index="3" response="000111" foes="000111" cont="0"/>
        <request index="4" response="000111" foes="000111" cont="0"/>
        <request index="5" response="000110" foes="000110" cont="1"/>
    </junction>
    <junction id="n4" type="priority" x="200.00" y="400.00" incLanes="3to4_0 3to4_1" intLanes=":n4_0_0 :n4_1_0" shape="206.40,400.00 206.40,393.60 200.00,393.60 200.71,397.16 201.60,398.40 202.84,399.29 204.44,399.82">
        <request index="0" response="00" foes="00" cont="0"/>
        <request index="1" response="00" foes="00" cont="0"/>
    </junction>
    <junction id="n5" type="priority" x="400.00" y="200.00" incLanes="3to5_0 3to5_1" intLanes=":n5_0_0 :n5_0_1 :n5_2_0 :n5_3_0" shape="400.00,204.00 406.40,204.00 406.84,201.78 407.40,201.00 408.18,200.44 409.18,200.11 410.40,200.00 410.40,193.60 396.00,193.60 396.00,200.00 398.22,200.44 399.00,201.00 399.56,201.78 399.89,202.78">
        <request index="0" response="0000" foes="0000" cont="0"/>
        <request index="1" response="0000" foes="0000" cont="0"/>
        <request index="2" response="0000" foes="0000" cont="0"/>
        <request index="3" response="0000" foes="0000" cont="0"/>
    </junction>
    <junction id="n6" type="priority" x="400.00" y="400.00" incLanes="5to6_0 5to6_1 4to6_0 4to6_1" intLanes=":n6_0_0 :n6_1_0 :n6_2_0 :n6_2_1" shape="410.40,400.00 410.40,393.60 408.18,393.16 407.40,392.60 406.84,391.82 406.51,390.82 406.40,389.60 400.00,389.60 399.56,391.82 399.00,392.60 398.22,393.16 397.22,393.49 396.00,393.60 396.00,400.00">
        <request index="0" response="0000" foes="1100" cont="0"/>
        <request index="1" response="0000" foes="1100" cont="0"/>
        <request index="2" response="0011" foes="0011" cont="0"/>
        <request index="3" response="0011" foes="0011" cont="0"/>
    </junction>
    <junction id="n7" type="priority" x="600.00" y="200.00" incLanes="5to7_0 5to7_1" intLanes=":n7_0_0 :n7_1_0" shape="600.00,200.00 606.40,200.00 605.69,196.44 604.80,195.20 603.56,194.31 601.96,193.78 600.00,193.60">
        <request index="0" response="00" foes="00" cont="0"/>
        <request index="1" response="00" foes="00" cont="0"/>
    </junction>
    <junction id="n8" type="priority" x="600.00" y="400.00" incLanes="7to8_0 7to8_1 6to8_0 6to8_1" intLanes=":n8_0_0 :n8_1_0 :n8_1_1 :n8_3_0 :n8_3_1 :n8_6_0" shape="600.00,404.00 606.40,404.00 606.84,401.78 607.40,401.00 608.18,400.44 609.18,400.11 610.40,400.00 610.40,393.60 608.18,393.16 607.40,392.60 606.84,391.82 606.51,390.82 606.40,389.60 600.00,389.60 599.56,391.82 599.00,392.60 598.22,393.16 597.22,393.49 596.00,393.60 596.00,400.00 598.22,400.44 599.00,401.00 599.56,401.78 599.89,402.78">
        <request index="0" response="000000" foes="011000" cont="0"/>
        <request index="1" response="000000" foes="111000" cont="0"/>
        <request index="2" response="000000" foes="111000" cont="0"/>
        <request index="3" response="000111" foes="000111" cont="0"/>
        <request index="4" response="000111" foes="000111" cont="0"/>
        <request index="5" response="000110" foes="000110" cont="1"/>
    </junction>
    <junction id="n9" type="priority" x="600.00" y="600.00" incLanes="8to9_0 8to9_1" intLanes=":n9_0_0 :n9_1_0" shape="606.40,600.00 600.00,600.00 600.00,606.40 603.56,605.69 604.80,604.80 605.69,603.56 606.22,601.96">
        <request index="0" response="00" foes="00" cont="0"/>
        <request index="1" response="00" foes="00" cont="0"/>
    </junction>

    <junction id=":n3_6_0" type="internal" x="200.00" y="199.68" incLanes=":n3_5_0 2to3_0 2to3_1" intLanes=":n3_1_0 :n3_1_1"/>
    <junction id=":n8_6_0" type="internal" x="600.00" y="399.68" incLanes=":n8_5_0 7to8_0 7to8_1" intLanes=":n8_1_0 :n8_1_1"/>

    <connection from="10to11" to="11to2" fromLane="0" toLane="0" via=":n11_0_0" dir="r" state="M"/>
    <connection from="10to11" to="11to2" fromLane="1" toLane="1" via=":n11_1_0" dir="r" state="M"/>
    <connection from="11to2" to="2to3" fromLane="0" toLane="0" via=":n2_0_0" dir="r" state="M"/>
    <connection from="11to2" to="2to3" fromLane="1" toLane="1" via=":n2_1_0" dir="r" state="M"/>
    <connection from="12to1" to="1to3" fromLane="0" toLane="0" via=":n1_0_0" dir="l" state="M"/>
    <connection from="12to1" to="1to3" fromLane="1" toLane="1" via=":n1_1_0" dir="l" state="M"/>
    <connection from="1to3" to="3to5" fromLane="0" toLane="0" via=":n3_3_0" dir="s" state="m"/>
    <connection from="1to3" to="3to5" fromLane="1" toLane="1" via=":n3_3_1" dir="s" state="m"/>
    <connection from="1to3" to="3to4" fromLane="1" toLane="1" via=":n3_5_0" dir="l" state="m"/>
    <connection from="2to3" to="3to5" fromLane="0" toLane="0" via=":n3_0_0" dir="r" state="M"/>
    <connection from="2to3" to="3to4" fromLane="0" toLane="0" via=":n3_1_0" dir="s" state="M"/>
    <connection from="2to3" to="3to4" fromLane="1" toLane="1" via=":n3_1_1" dir="s" state="M"/>
    <connection from="3to4" to="4to6" fromLane="0" toLane="0" via=":n4_0_0" dir="r" state="M"/>
    <connection from="3to4" to="4to6" fromLane="1" toLane="1" via=":n4_1_0" dir="r" state="M"/>
    <connection from="3to5" to="5to7" fromLane="0" toLane="0" via=":n5_0_0" dir="s" state="M"/>
    <connection from="3to5" to="5to7" fromLane="1" toLane="1" via=":n5_0_1" dir="s" state="M"/>
    <connection from="3to5" to="5to6" fromLane="1" toLane="0" via=":n5_2_0" dir="l" state="M"/>
    <connection from="3to5" to="5to6" fromLane="1" toLane="1" via=":n5_3_0" dir="l" state="M"/>
    <connection from="4to6" to="6to8" fromLane="0" toLane="0" via=":n6_2_0" dir="s" state="m"/>
    <connection from="4to6" to="6to8" fromLane="1" toLane="1" via=":n6_2_1" dir="s" state="m"/>
    <connection from="5to6" to="6to8" fromLane="0" toLane="0" via=":n6_0_0" dir="r" state="M"/>
    <connection from="5to6" to="6to8" fromLane="1" toLane="1" via=":n6_1_0" dir="r" state="M"/>
    <connection from="5to7" to="7to8" fromLane="0" toLane="0" via=":n7_0_0" dir="l" state="M"/>
    <connection from="5to7" to="7to8" fromLane="1" toLane="1" via=":n7_1_0" dir="l" state="M"/>
    <connection from="6to8" to="8to10" fromLane="0" toLane="0" via=":n8_3_0" dir="s" state="m"/>
    <connection from="6to8" to="8to10" fromLane="1" toLane="1" via=":n8_3_1" dir="s" state="m"/>
    <connection from="6to8" to="8to9" fromLane="1" toLane="1" via=":n8_5_0" dir="l" state="m"/>
    <connection from="7to8" to="8to10" fromLane="0" toLane="0" via=":n8_0_0" dir="r" state="M"/>
    <connection from="7to8" to="8to9" fromLane="0" toLane="0" via=":n8_1_0" dir="s" state="M"/>
    <connection from="7to8" to="8to9" fromLane="1" toLane="1" via=":n8_1_1" dir="s" state="M"/>
    <connection from="8to10" to="10to11" fromLane="0" toLane="0" via=":n10_0_0" dir="r" state="M"/>
    <connection from="8to10" to="10to11" fromLane="1" toLane="1" via=":n10_1_0" dir="r" state="M"/>
    <connection from="8to9" to="9to12" fromLane="0" toLane="0" via=":n9_0_0" dir="l" state="M"/>
    <connection from="8to9" to="9to12" fromLane="1" toLane="1" via=":n9_1_0" dir="l" state="M"/>
    <connection from="9to12" to="12to1" fromLane="0" toLane="0" via=":n12_0_0" dir="l" state="M"/>
    <connection from="9to12" to="12to1" fromLane="1" toLane="1" via=":n12_1_0" dir="l" state="M"/>

    <connection from=":n1_0" to="1to3" fromLane="0" toLane="0" dir="l" state="M"/>
    <connection from=":n1_1" to="1to3" fromLane="0" toLane="1" dir="l" state="M"/>
    <connection from=":n10_0" to="10to11" fromLane="0" toLane="0" dir="r" state="M"/>
    <connection from=":n10_1" to="10to11" fromLane="0" toLane="1" dir="r" state="M"/>
    <connection from=":n11_0" to="11to2" fromLane="0" toLane="0" dir="r" state="M"/>
    <connection from=":n11_1" to="11to2" fromLane="0" toLane="1" dir="r" state="M"/>
    <connection from=":n12_0" to="12to1" fromLane="0" toLane="0" dir="l" state="M"/>
    <connection from=":n12_1" to="12to1" fromLane="0" toLane="1" dir="l" state="M"/>
    <connection from=":n2_0" to="2to3" fromLane="0" toLane="0" dir="r" state="M"/>
    <connection from=":n2_1" to="2to3" fromLane="0" toLane="1" dir="r" state="M"/>
    <connection from=":n3_0" to="3to5" fromLane="0" toLane="0" dir="r" state="M"/>
    <connection from=":n3_1" to="3to4" fromLane="0" toLane="0" dir="s" state="M"/>
    <connection from=":n3_1" to="3to4" fromLane="1" toLane="1" dir="s" state="M"/>
    <connection from=":n3_3" to="3to5" fromLane="0" toLane="0" dir="s" state="M"/>
    <connection from=":n3_3" to="3to5" fromLane="1" toLane="1" dir="s" state="M"/>
    <connection from=":n3_5" to="3to4" fromLane="0" toLane="1" via=":n3_6_0" dir="l" state="m"/>
    <connection from=":n3_6" to="3to4" fromLane="0" toLane="1" dir="l" state="M"/>
    <connection from=":n4_0" to="4to6" fromLane="0" toLane="0" dir="r" state="M"/>
    <connection from=":n4_1" to="4to6" fromLane="0" toLane="1" dir="r" state="M"/>
    <connection from=":n5_0" to="5to7" fromLane="0" toLane="0" dir="s" state="M"/>
    <connection from=":n5_0" to="5to7" fromLane="1" toLane="1" dir="s" state="M"/>
    <connection from=":n5_2" to="5to6" fromLane="0" toLane="0" dir="l" state="M"/>
    <connection from=":n5_3" to="5to6" fromLane="0" toLane="1" dir="l" state="M"/>
    <connection from=":n6_0" to="6to8" fromLane="0" toLane="0" dir="r" state="M"/>
    <connection from=":n6_1" to="6to8" fromLane="0" toLane="1" dir="r" state="M"/>
    <connection from=":n6_2" to="6to8" fromLane="0" toLane="0" dir="s" state="M"/>
    <connection from=":n6_2" to="6to8" fromLane="1" toLane="1" dir="s" state="M"/>
    <connection from=":n7_0" to="7to8" fromLane="0" toLane="0" dir="l" state="M"/>
    <connection from=":n7_1" to="7to8" fromLane="0" toLane="1" dir="l" state="M"/>
    <connection from=":n8_0" to="8to10" fromLane="0" toLane="0" dir="r" state="M"/>
    <connection from=":n8_1" to="8to9" fromLane="0" toLane="0" dir="s" state="M"/>
    <connection from=":n8_1" to="8to9" fromLane="1" toLane="1" dir="s" state="M"/>
    <connection from=":n8_3" to="8to10" fromLane="0" toLane="0" dir="s" state="M"/>
    <connection from=":n8_3" to="8to10" fromLane="1" toLane="1" dir="s" state="M"/>
    <connection from=":n8_5" to="8to9" fromLane="0" toLane="1" via=":n8_6_0" dir="l" state="m"/>
    <connection from=":n8_6" to="8to9" fromLane="0" toLane="1" dir="l" state="M"/>
    <connection from=":n9_0" to="9to12" fromLane="0" toLane="0" dir="l" state="M"/>
    <connection from=":n9_1" to="9to12" fromLane="0" toLane="1" dir="l" state="M"/>

</net>
