<types>
	<type id="2L60" priority="1" numLanes="2" speed="80"/>
</types>
