<edges>
	<edge from="n1" to="n3" id="1to3" type="2L60"/>
	<edge from="n2" to="n3" id="2to3" type="2L60"/>
	<edge from="n3" to="n4" id="3to4" type="2L60"/>
	<edge from="n3" to="n5" id="3to5" type="2L60"/>
	<edge from="n4" to="n6" id="4to6" type="2L60"/>
	<edge from="n5" to="n6" id="5to6" type="2L60"/>
	<edge from="n5" to="n7" id="5to7" type="2L60"/>
	<edge from="n6" to="n8" id="6to8" type="2L60"/>
	<edge from="n7" to="n8" id="7to8" type="2L60"/>
	<edge from="n8" to="n9" id="8to9" type="2L60"/>
	<edge from="n8" to="n10" id="8to10" type="2L60"/>
    <edge from="n10" to="n11" id="10to11" type="2L60"/>
    <edge from="n11" to="n2" id="11to2" type="2L60"/>
    <edge from="n9" to="n12" id="9to12" type="2L60"/>
    <edge from="n12" to="n1" id="12to1" type="2L60"/>
</edges>