<?xml version="1.0" encoding="UTF-8"?>

<!-- generated on Tue Sep 29 19:25:34 2020 by Eclipse SUMO netconvert Version 1.4.0
<configuration xmlns:xsi="http://www.w3.org/2001/XMLSchema-instance" xsi:noNamespaceSchemaLocation="http://sumo.dlr.de/xsd/netconvertConfiguration.xsd">

    <input>
        <node-files value="node.nod.xml"/>
        <edge-files value="edge.edg.xml"/>
        <type-files value="type.typ.xml"/>
    </input>

    <output>
        <output-file value="net.net.xml"/>
    </output>

    <report>
        <aggregate-warnings value="5"/>
    </report>

</configuration>
-->

<net version="1.3" junctionCornerDetail="5" limitTurnSpeed="5.50" xmlns:xsi="http://www.w3.org/2001/XMLSchema-instance" xsi:noNamespaceSchemaLocation="http://sumo.dlr.de/xsd/net_file.xsd">

    <location netOffset="-100.00,-150.00" convBoundary="0.00,0.00,375.00,200.00" origBoundary="100.00,150.00,475.00,350.00" projParameter="!"/>

    <type id="2L40" priority="2" numLanes="2" speed="44.40"/>

    <edge id=":n1_0" function="internal">
        <lane id=":n1_0_0" index="0" speed="3.65" length="4.67" shape="0.00,101.60 -1.20,100.80 -1.60,100.00 -1.20,99.20 0.00,98.40"/>
    </edge>
    <edge id=":n2_0" function="internal">
        <lane id=":n2_0_0" index="0" speed="3.65" length="4.67" shape="375.00,98.40 376.20,99.20 376.60,100.00 376.20,100.80 375.00,101.60"/>
    </edge>
    <edge id=":n3_0" function="internal">
        <lane id=":n3_0_0" index="0" speed="3.65" length="4.67" shape="101.60,200.00 100.80,201.20 100.00,201.60 99.20,201.20 98.40,200.00"/>
    </edge>
    <edge id=":n4_0" function="internal">
        <lane id=":n4_0_0" index="0" speed="3.65" length="4.67" shape="301.60,200.00 300.80,201.20 300.00,201.60 299.20,201.20 298.40,200.00"/>
    </edge>
    <edge id=":n5_0" function="internal">
        <lane id=":n5_0_0" index="0" speed="3.65" length="4.67" shape="198.40,0.00 199.20,-1.20 200.00,-1.60 200.80,-1.20 201.60,0.00"/>
    </edge>
    <edge id=":n6_0" function="internal">
        <lane id=":n6_0_0" index="0" speed="6.51" length="9.03" shape="95.20,110.40 94.85,107.95 93.80,106.20 92.05,105.15 89.60,104.80"/>
    </edge>
    <edge id=":n6_1" function="internal">
        <lane id=":n6_1_0" index="0" speed="9.26" length="19.35" shape="98.40,110.40 99.15,105.15 101.40,101.40 105.15,99.15 110.40,98.40"/>
    </edge>
    <edge id=":n6_2" function="internal">
        <lane id=":n6_2_0" index="0" speed="3.65" length="4.67" shape="98.40,110.40 99.20,109.20 100.00,108.80 100.80,109.20 101.60,110.40"/>
    </edge>
    <edge id=":n6_3" function="internal">
        <lane id=":n6_3_0" index="0" speed="6.51" length="9.03" shape="110.40,104.80 107.95,105.15 106.20,106.20 105.15,107.95 104.80,110.40"/>
    </edge>
    <edge id=":n6_4" function="internal">
        <lane id=":n6_4_0" index="0" speed="44.40" length="20.80" shape="110.40,104.80 89.60,104.80"/>
        <lane id=":n6_4_1" index="1" speed="44.40" length="20.80" shape="110.40,101.60 89.60,101.60"/>
    </edge>
    <edge id=":n6_6" function="internal">
        <lane id=":n6_6_0" index="0" speed="3.65" length="2.34" shape="110.40,101.60 109.20,100.80 108.80,100.00"/>
    </edge>
    <edge id=":n6_11" function="internal">
        <lane id=":n6_11_0" index="0" speed="3.65" length="2.34" shape="108.80,100.00 109.20,99.20 110.40,98.40"/>
    </edge>
    <edge id=":n6_7" function="internal">
        <lane id=":n6_7_0" index="0" speed="44.40" length="20.80" shape="89.60,95.20 110.40,95.20"/>
        <lane id=":n6_7_1" index="1" speed="44.40" length="20.80" shape="89.60,98.40 110.40,98.40"/>
    </edge>
    <edge id=":n6_9" function="internal">
        <lane id=":n6_9_0" index="0" speed="9.26" length="6.96" shape="89.60,98.40 94.85,99.15 96.27,100.00"/>
    </edge>
    <edge id=":n6_10" function="internal">
        <lane id=":n6_10_0" index="0" speed="3.65" length="2.34" shape="89.60,98.40 90.80,99.20 91.20,100.00"/>
    </edge>
    <edge id=":n6_12" function="internal">
        <lane id=":n6_12_0" index="0" speed="9.26" length="12.40" shape="96.27,100.00 98.60,101.40 100.85,105.15 101.60,110.40"/>
    </edge>
    <edge id=":n6_13" function="internal">
        <lane id=":n6_13_0" index="0" speed="3.65" length="2.34" shape="91.20,100.00 90.80,100.80 89.60,101.60"/>
    </edge>
    <edge id=":n7_0" function="internal">
        <lane id=":n7_0_0" index="0" speed="44.40" length="20.80" shape="210.40,104.80 189.60,104.80"/>
        <lane id=":n7_0_1" index="1" speed="44.40" length="20.80" shape="210.40,101.60 189.60,101.60"/>
    </edge>
    <edge id=":n7_2" function="internal">
        <lane id=":n7_2_0" index="0" speed="9.26" length="6.96" shape="210.40,101.60 205.15,100.85 203.73,100.00"/>
    </edge>
    <edge id=":n7_3" function="internal">
        <lane id=":n7_3_0" index="0" speed="3.65" length="2.34" shape="210.40,101.60 209.20,100.80 208.80,100.00"/>
    </edge>
    <edge id=":n7_11" function="internal">
        <lane id=":n7_11_0" index="0" speed="9.26" length="12.40" shape="203.73,100.00 201.40,98.60 199.15,94.85 198.40,89.60"/>
    </edge>
    <edge id=":n7_12" function="internal">
        <lane id=":n7_12_0" index="0" speed="3.65" length="2.34" shape="208.80,100.00 209.20,99.20 210.40,98.40"/>
    </edge>
    <edge id=":n7_4" function="internal">
        <lane id=":n7_4_0" index="0" speed="6.51" length="9.03" shape="204.80,89.60 205.15,92.05 206.20,93.80 207.95,94.85 210.40,95.20"/>
    </edge>
    <edge id=":n7_5" function="internal">
        <lane id=":n7_5_0" index="0" speed="9.26" length="19.35" shape="201.60,89.60 200.85,94.85 198.60,98.60 194.85,100.85 189.60,101.60"/>
    </edge>
    <edge id=":n7_6" function="internal">
        <lane id=":n7_6_0" index="0" speed="3.65" length="4.67" shape="201.60,89.60 200.80,90.80 200.00,91.20 199.20,90.80 198.40,89.60"/>
    </edge>
    <edge id=":n7_7" function="internal">
        <lane id=":n7_7_0" index="0" speed="6.51" length="9.03" shape="189.60,95.20 192.05,94.85 193.80,93.80 194.85,92.05 195.20,89.60"/>
    </edge>
    <edge id=":n7_8" function="internal">
        <lane id=":n7_8_0" index="0" speed="44.40" length="20.80" shape="189.60,95.20 210.40,95.20"/>
        <lane id=":n7_8_1" index="1" speed="44.40" length="20.80" shape="189.60,98.40 210.40,98.40"/>
    </edge>
    <edge id=":n7_10" function="internal">
        <lane id=":n7_10_0" index="0" speed="3.65" length="2.34" shape="189.60,98.40 190.80,99.20 191.20,100.00"/>
    </edge>
    <edge id=":n7_13" function="internal">
        <lane id=":n7_13_0" index="0" speed="3.65" length="2.34" shape="191.20,100.00 190.80,100.80 189.60,101.60"/>
    </edge>
    <edge id=":n8_0" function="internal">
        <lane id=":n8_0_0" index="0" speed="6.51" length="9.03" shape="295.20,110.40 294.85,107.95 293.80,106.20 292.05,105.15 289.60,104.80"/>
    </edge>
    <edge id=":n8_1" function="internal">
        <lane id=":n8_1_0" index="0" speed="9.26" length="19.35" shape="298.40,110.40 299.15,105.15 301.40,101.40 305.15,99.15 310.40,98.40"/>
    </edge>
    <edge id=":n8_2" function="internal">
        <lane id=":n8_2_0" index="0" speed="3.65" length="4.67" shape="298.40,110.40 299.20,109.20 300.00,108.80 300.80,109.20 301.60,110.40"/>
    </edge>
    <edge id=":n8_3" function="internal">
        <lane id=":n8_3_0" index="0" speed="6.51" length="9.03" shape="310.40,104.80 307.95,105.15 306.20,106.20 305.15,107.95 304.80,110.40"/>
    </edge>
    <edge id=":n8_4" function="internal">
        <lane id=":n8_4_0" index="0" speed="44.40" length="20.80" shape="310.40,104.80 289.60,104.80"/>
        <lane id=":n8_4_1" index="1" speed="44.40" length="20.80" shape="310.40,101.60 289.60,101.60"/>
    </edge>
    <edge id=":n8_6" function="internal">
        <lane id=":n8_6_0" index="0" speed="3.65" length="2.34" shape="310.40,101.60 309.20,100.80 308.80,100.00"/>
    </edge>
    <edge id=":n8_11" function="internal">
        <lane id=":n8_11_0" index="0" speed="3.65" length="2.34" shape="308.80,100.00 309.20,99.20 310.40,98.40"/>
    </edge>
    <edge id=":n8_7" function="internal">
        <lane id=":n8_7_0" index="0" speed="44.40" length="20.80" shape="289.60,95.20 310.40,95.20"/>
        <lane id=":n8_7_1" index="1" speed="44.40" length="20.80" shape="289.60,98.40 310.40,98.40"/>
    </edge>
    <edge id=":n8_9" function="internal">
        <lane id=":n8_9_0" index="0" speed="9.26" length="6.96" shape="289.60,98.40 294.85,99.15 296.27,100.00"/>
    </edge>
    <edge id=":n8_10" function="internal">
        <lane id=":n8_10_0" index="0" speed="3.65" length="2.34" shape="289.60,98.40 290.80,99.20 291.20,100.00"/>
    </edge>
    <edge id=":n8_12" function="internal">
        <lane id=":n8_12_0" index="0" speed="9.26" length="12.40" shape="296.27,100.00 298.60,101.40 300.85,105.15 301.60,110.40"/>
    </edge>
    <edge id=":n8_13" function="internal">
        <lane id=":n8_13_0" index="0" speed="3.65" length="2.34" shape="291.20,100.00 290.80,100.80 289.60,101.60"/>
    </edge>

    <edge id="1to6" from="n1" to="n6" priority="2" type="2L40">
        <lane id="1to6_0" index="0" speed="44.40" length="89.60" shape="0.00,95.20 89.60,95.20"/>
        <lane id="1to6_1" index="1" speed="44.40" length="89.60" shape="0.00,98.40 89.60,98.40"/>
    </edge>
    <edge id="2to8" from="n2" to="n8" priority="2" type="2L40">
        <lane id="2to8_0" index="0" speed="44.40" length="64.60" shape="375.00,104.80 310.40,104.80"/>
        <lane id="2to8_1" index="1" speed="44.40" length="64.60" shape="375.00,101.60 310.40,101.60"/>
    </edge>
    <edge id="3to6" from="n3" to="n6" priority="2" type="2L40">
        <lane id="3to6_0" index="0" speed="44.40" length="89.60" shape="95.20,200.00 95.20,110.40"/>
        <lane id="3to6_1" index="1" speed="44.40" length="89.60" shape="98.40,200.00 98.40,110.40"/>
    </edge>
    <edge id="4to8" from="n4" to="n8" priority="2" type="2L40">
        <lane id="4to8_0" index="0" speed="44.40" length="89.60" shape="295.20,200.00 295.20,110.40"/>
        <lane id="4to8_1" index="1" speed="44.40" length="89.60" shape="298.40,200.00 298.40,110.40"/>
    </edge>
    <edge id="5to7" from="n5" to="n7" priority="2" type="2L40">
        <lane id="5to7_0" index="0" speed="44.40" length="89.60" shape="204.80,0.00 204.80,89.60"/>
        <lane id="5to7_1" index="1" speed="44.40" length="89.60" shape="201.60,0.00 201.60,89.60"/>
    </edge>
    <edge id="6to1" from="n6" to="n1" priority="2" type="2L40">
        <lane id="6to1_0" index="0" speed="44.40" length="89.60" shape="89.60,104.80 0.00,104.80"/>
        <lane id="6to1_1" index="1" speed="44.40" length="89.60" shape="89.60,101.60 0.00,101.60"/>
    </edge>
    <edge id="6to3" from="n6" to="n3" priority="2" type="2L40">
        <lane id="6to3_0" index="0" speed="44.40" length="89.60" shape="104.80,110.40 104.80,200.00"/>
        <lane id="6to3_1" index="1" speed="44.40" length="89.60" shape="101.60,110.40 101.60,200.00"/>
    </edge>
    <edge id="6to7" from="n6" to="n7" priority="2" type="2L40">
        <lane id="6to7_0" index="0" speed="44.40" length="79.20" shape="110.40,95.20 189.60,95.20"/>
        <lane id="6to7_1" index="1" speed="44.40" length="79.20" shape="110.40,98.40 189.60,98.40"/>
    </edge>
    <edge id="7to5" from="n7" to="n5" priority="2" type="2L40">
        <lane id="7to5_0" index="0" speed="44.40" length="89.60" shape="195.20,89.60 195.20,0.00"/>
        <lane id="7to5_1" index="1" speed="44.40" length="89.60" shape="198.40,89.60 198.40,0.00"/>
    </edge>
    <edge id="7to6" from="n7" to="n6" priority="2" type="2L40">
        <lane id="7to6_0" index="0" speed="44.40" length="79.20" shape="189.60,104.80 110.40,104.80"/>
        <lane id="7to6_1" index="1" speed="44.40" length="79.20" shape="189.60,101.60 110.40,101.60"/>
    </edge>
    <edge id="7to8" from="n7" to="n8" priority="2" type="2L40">
        <lane id="7to8_0" index="0" speed="44.40" length="79.20" shape="210.40,95.20 289.60,95.20"/>
        <lane id="7to8_1" index="1" speed="44.40" length="79.20" shape="210.40,98.40 289.60,98.40"/>
    </edge>
    <edge id="8to2" from="n8" to="n2" priority="2" type="2L40">
        <lane id="8to2_0" index="0" speed="44.40" length="64.60" shape="310.40,95.20 375.00,95.20"/>
        <lane id="8to2_1" index="1" speed="44.40" length="64.60" shape="310.40,98.40 375.00,98.40"/>
    </edge>
    <edge id="8to4" from="n8" to="n4" priority="2" type="2L40">
        <lane id="8to4_0" index="0" speed="44.40" length="89.60" shape="304.80,110.40 304.80,200.00"/>
        <lane id="8to4_1" index="1" speed="44.40" length="89.60" shape="301.60,110.40 301.60,200.00"/>
    </edge>
    <edge id="8to7" from="n8" to="n7" priority="2" type="2L40">
        <lane id="8to7_0" index="0" speed="44.40" length="79.20" shape="289.60,104.80 210.40,104.80"/>
        <lane id="8to7_1" index="1" speed="44.40" length="79.20" shape="289.60,101.60 210.40,101.60"/>
    </edge>

    <junction id="n1" type="priority" x="0.00" y="100.00" incLanes="6to1_0 6to1_1" intLanes=":n1_0_0" shape="0.00,100.00 0.00,106.40 0.00,100.00">
        <request index="0" response="0" foes="0" cont="0"/>
    </junction>
    <junction id="n2" type="priority" x="375.00" y="100.00" incLanes="8to2_0 8to2_1" intLanes=":n2_0_0" shape="375.00,100.00 375.00,93.60 375.00,100.00">
        <request index="0" response="0" foes="0" cont="0"/>
    </junction>
    <junction id="n3" type="priority" x="100.00" y="200.00" incLanes="6to3_0 6to3_1" intLanes=":n3_0_0" shape="100.00,200.00 106.40,200.00 100.00,200.00">
        <request index="0" response="0" foes="0" cont="0"/>
    </junction>
    <junction id="n4" type="priority" x="300.00" y="200.00" incLanes="8to4_0 8to4_1" intLanes=":n4_0_0" shape="300.00,200.00 306.40,200.00 300.00,200.00">
        <request index="0" response="0" foes="0" cont="0"/>
    </junction>
    <junction id="n5" type="priority" x="200.00" y="0.00" incLanes="7to5_0 7to5_1" intLanes=":n5_0_0" shape="200.00,0.00 193.60,0.00 200.00,0.00">
        <request index="0" response="0" foes="0" cont="0"/>
    </junction>
    <junction id="n6" type="priority" x="100.00" y="100.00" incLanes="3to6_0 3to6_1 7to6_0 7to6_1 1to6_0 1to6_1" intLanes=":n6_0_0 :n6_1_0 :n6_2_0 :n6_3_0 :n6_4_0 :n6_4_1 :n6_11_0 :n6_7_0 :n6_7_1 :n6_12_0 :n6_13_0" shape="93.60,110.40 106.40,110.40 106.84,108.18 107.40,107.40 108.18,106.84 109.18,106.51 110.40,106.40 110.40,93.60 89.60,93.60 89.60,106.40 91.82,106.84 92.60,107.40 93.16,108.18 93.49,109.18">
        <request index="0"  response="00000110000" foes="00000110000" cont="0"/>
        <request index="1"  response="01110110000" foes="01111110000" cont="0"/>
        <request index="2"  response="01000000000" foes="01000000000" cont="0"/>
        <request index="3"  response="00000000000" foes="00000000000" cont="0"/>
        <request index="4"  response="00000000000" foes="11000000011" cont="0"/>
        <request index="5"  response="00000000000" foes="11000000011" cont="0"/>
        <request index="6"  response="00110000010" foes="00110000010" cont="1"/>
        <request index="7"  response="00000000000" foes="00001000010" cont="0"/>
        <request index="8"  response="00000000000" foes="00001000010" cont="0"/>
        <request index="9"  response="00000110000" foes="00000110110" cont="1"/>
        <request index="10" response="00000110000" foes="00000110000" cont="1"/>
    </junction>
    <junction id="n7" type="priority" x="200.00" y="100.00" incLanes="8to7_0 8to7_1 5to7_0 5to7_1 6to7_0 6to7_1" intLanes=":n7_0_0 :n7_0_1 :n7_11_0 :n7_12_0 :n7_4_0 :n7_5_0 :n7_6_0 :n7_7_0 :n7_8_0 :n7_8_1 :n7_13_0" shape="210.40,106.40 210.40,93.60 208.18,93.16 207.40,92.60 206.84,91.82 206.51,90.82 206.40,89.60 193.60,89.60 193.16,91.82 192.60,92.60 191.82,93.16 190.82,93.49 189.60,93.60 189.60,106.40">
        <request index="0"  response="00000000000" foes="10000100000" cont="0"/>
        <request index="1"  response="00000000000" foes="10000100000" cont="0"/>
        <request index="2"  response="01100000000" foes="01101100000" cont="1"/>
        <request index="3"  response="01100000000" foes="01100000000" cont="1"/>
        <request index="4"  response="01100000000" foes="01100000000" cont="0"/>
        <request index="5"  response="01100000111" foes="11100000111" cont="0"/>
        <request index="6"  response="00000000100" foes="00000000100" cont="0"/>
        <request index="7"  response="00000000000" foes="00000000000" cont="0"/>
        <request index="8"  response="00000000000" foes="00000111100" cont="0"/>
        <request index="9"  response="00000000000" foes="00000111100" cont="0"/>
        <request index="10" response="00000100011" foes="00000100011" cont="1"/>
    </junction>
    <junction id="n8" type="priority" x="300.00" y="100.00" incLanes="4to8_0 4to8_1 2to8_0 2to8_1 7to8_0 7to8_1" intLanes=":n8_0_0 :n8_1_0 :n8_2_0 :n8_3_0 :n8_4_0 :n8_4_1 :n8_11_0 :n8_7_0 :n8_7_1 :n8_12_0 :n8_13_0" shape="293.60,110.40 306.40,110.40 306.84,108.18 307.40,107.40 308.18,106.84 309.18,106.51 310.40,106.40 310.40,93.60 289.60,93.60 289.60,106.40 291.82,106.84 292.60,107.40 293.16,108.18 293.49,109.18">
        <request index="0"  response="00000110000" foes="00000110000" cont="0"/>
        <request index="1"  response="01110110000" foes="01111110000" cont="0"/>
        <request index="2"  response="01000000000" foes="01000000000" cont="0"/>
        <request index="3"  response="00000000000" foes="00000000000" cont="0"/>
        <request index="4"  response="00000000000" foes="11000000011" cont="0"/>
        <request index="5"  response="00000000000" foes="11000000011" cont="0"/>
        <request index="6"  response="00110000010" foes="00110000010" cont="1"/>
        <request index="7"  response="00000000000" foes="00001000010" cont="0"/>
        <request index="8"  response="00000000000" foes="00001000010" cont="0"/>
        <request index="9"  response="00000110000" foes="00000110110" cont="1"/>
        <request index="10" response="00000110000" foes="00000110000" cont="1"/>
    </junction>

    <junction id=":n6_11_0" type="internal" x="108.80" y="100.00" incLanes=":n6_6_0 1to6_0 1to6_1 3to6_1" intLanes=":n6_1_0 :n6_7_0 :n6_7_1"/>
    <junction id=":n6_12_0" type="internal" x="96.27" y="100.00" incLanes=":n6_9_0 7to6_0 7to6_1" intLanes=":n6_1_0 :n6_2_0 :n6_3_0 :n6_4_0 :n6_4_1"/>
    <junction id=":n6_13_0" type="internal" x="91.20" y="100.00" incLanes=":n6_10_0 3to6_0 7to6_0 7to6_1" intLanes=":n6_0_0 :n6_4_0 :n6_4_1"/>
    <junction id=":n7_11_0" type="internal" x="203.73" y="100.00" incLanes=":n7_2_0 6to7_0 6to7_1" intLanes=":n7_5_0 :n7_6_0 :n7_7_0 :n7_8_0 :n7_8_1"/>
    <junction id=":n7_12_0" type="internal" x="208.80" y="100.00" incLanes=":n7_3_0 5to7_0 6to7_0 6to7_1" intLanes=":n7_4_0 :n7_8_0 :n7_8_1"/>
    <junction id=":n7_13_0" type="internal" x="191.20" y="100.00" incLanes=":n7_10_0 5to7_1 8to7_0 8to7_1" intLanes=":n7_0_0 :n7_0_1 :n7_5_0"/>
    <junction id=":n8_11_0" type="internal" x="308.80" y="100.00" incLanes=":n8_6_0 4to8_1 7to8_0 7to8_1" intLanes=":n8_1_0 :n8_7_0 :n8_7_1"/>
    <junction id=":n8_12_0" type="internal" x="296.27" y="100.00" incLanes=":n8_9_0 2to8_0 2to8_1" intLanes=":n8_1_0 :n8_2_0 :n8_3_0 :n8_4_0 :n8_4_1"/>
    <junction id=":n8_13_0" type="internal" x="291.20" y="100.00" incLanes=":n8_10_0 2to8_0 2to8_1 4to8_0" intLanes=":n8_0_0 :n8_4_0 :n8_4_1"/>

    <connection from="1to6" to="6to7" fromLane="0" toLane="0" via=":n6_7_0" dir="s" state="M"/>
    <connection from="1to6" to="6to7" fromLane="1" toLane="1" via=":n6_7_1" dir="s" state="M"/>
    <connection from="1to6" to="6to3" fromLane="1" toLane="1" via=":n6_9_0" dir="l" state="m"/>
    <connection from="1to6" to="6to1" fromLane="1" toLane="1" via=":n6_10_0" dir="t" state="m"/>
    <connection from="2to8" to="8to4" fromLane="0" toLane="0" via=":n8_3_0" dir="r" state="M"/>
    <connection from="2to8" to="8to7" fromLane="0" toLane="0" via=":n8_4_0" dir="s" state="M"/>
    <connection from="2to8" to="8to7" fromLane="1" toLane="1" via=":n8_4_1" dir="s" state="M"/>
    <connection from="2to8" to="8to2" fromLane="1" toLane="1" via=":n8_6_0" dir="t" state="m"/>
    <connection from="3to6" to="6to1" fromLane="0" toLane="0" via=":n6_0_0" dir="r" state="m"/>
    <connection from="3to6" to="6to7" fromLane="1" toLane="1" via=":n6_1_0" dir="l" state="m"/>
    <connection from="3to6" to="6to3" fromLane="1" toLane="1" via=":n6_2_0" dir="t" state="m"/>
    <connection from="4to8" to="8to7" fromLane="0" toLane="0" via=":n8_0_0" dir="r" state="m"/>
    <connection from="4to8" to="8to2" fromLane="1" toLane="1" via=":n8_1_0" dir="l" state="m"/>
    <connection from="4to8" to="8to4" fromLane="1" toLane="1" via=":n8_2_0" dir="t" state="m"/>
    <connection from="5to7" to="7to8" fromLane="0" toLane="0" via=":n7_4_0" dir="r" state="m"/>
    <connection from="5to7" to="7to6" fromLane="1" toLane="1" via=":n7_5_0" dir="l" state="m"/>
    <connection from="5to7" to="7to5" fromLane="1" toLane="1" via=":n7_6_0" dir="t" state="m"/>
    <connection from="6to1" to="1to6" fromLane="1" toLane="1" via=":n1_0_0" dir="t" state="M"/>
    <connection from="6to3" to="3to6" fromLane="1" toLane="1" via=":n3_0_0" dir="t" state="M"/>
    <connection from="6to7" to="7to5" fromLane="0" toLane="0" via=":n7_7_0" dir="r" state="M"/>
    <connection from="6to7" to="7to8" fromLane="0" toLane="0" via=":n7_8_0" dir="s" state="M"/>
    <connection from="6to7" to="7to8" fromLane="1" toLane="1" via=":n7_8_1" dir="s" state="M"/>
    <connection from="6to7" to="7to6" fromLane="1" toLane="1" via=":n7_10_0" dir="t" state="m"/>
    <connection from="7to5" to="5to7" fromLane="1" toLane="1" via=":n5_0_0" dir="t" state="M"/>
    <connection from="7to6" to="6to3" fromLane="0" toLane="0" via=":n6_3_0" dir="r" state="M"/>
    <connection from="7to6" to="6to1" fromLane="0" toLane="0" via=":n6_4_0" dir="s" state="M"/>
    <connection from="7to6" to="6to1" fromLane="1" toLane="1" via=":n6_4_1" dir="s" state="M"/>
    <connection from="7to6" to="6to7" fromLane="1" toLane="1" via=":n6_6_0" dir="t" state="m"/>
    <connection from="7to8" to="8to2" fromLane="0" toLane="0" via=":n8_7_0" dir="s" state="M"/>
    <connection from="7to8" to="8to2" fromLane="1" toLane="1" via=":n8_7_1" dir="s" state="M"/>
    <connection from="7to8" to="8to4" fromLane="1" toLane="1" via=":n8_9_0" dir="l" state="m"/>
    <connection from="7to8" to="8to7" fromLane="1" toLane="1" via=":n8_10_0" dir="t" state="m"/>
    <connection from="8to2" to="2to8" fromLane="1" toLane="1" via=":n2_0_0" dir="t" state="M"/>
    <connection from="8to4" to="4to8" fromLane="1" toLane="1" via=":n4_0_0" dir="t" state="M"/>
    <connection from="8to7" to="7to6" fromLane="0" toLane="0" via=":n7_0_0" dir="s" state="M"/>
    <connection from="8to7" to="7to6" fromLane="1" toLane="1" via=":n7_0_1" dir="s" state="M"/>
    <connection from="8to7" to="7to5" fromLane="1" toLane="1" via=":n7_2_0" dir="l" state="m"/>
    <connection from="8to7" to="7to8" fromLane="1" toLane="1" via=":n7_3_0" dir="t" state="m"/>

    <connection from=":n1_0" to="1to6" fromLane="0" toLane="1" dir="t" state="M"/>
    <connection from=":n2_0" to="2to8" fromLane="0" toLane="1" dir="t" state="M"/>
    <connection from=":n3_0" to="3to6" fromLane="0" toLane="1" dir="t" state="M"/>
    <connection from=":n4_0" to="4to8" fromLane="0" toLane="1" dir="t" state="M"/>
    <connection from=":n5_0" to="5to7" fromLane="0" toLane="1" dir="t" state="M"/>
    <connection from=":n6_0" to="6to1" fromLane="0" toLane="0" dir="r" state="M"/>
    <connection from=":n6_1" to="6to7" fromLane="0" toLane="1" dir="l" state="M"/>
    <connection from=":n6_2" to="6to3" fromLane="0" toLane="1" dir="t" state="M"/>
    <connection from=":n6_3" to="6to3" fromLane="0" toLane="0" dir="r" state="M"/>
    <connection from=":n6_4" to="6to1" fromLane="0" toLane="0" dir="s" state="M"/>
    <connection from=":n6_4" to="6to1" fromLane="1" toLane="1" dir="s" state="M"/>
    <connection from=":n6_6" to="6to7" fromLane="0" toLane="1" via=":n6_11_0" dir="t" state="m"/>
    <connection from=":n6_11" to="6to7" fromLane="0" toLane="1" dir="t" state="M"/>
    <connection from=":n6_7" to="6to7" fromLane="0" toLane="0" dir="s" state="M"/>
    <connection from=":n6_7" to="6to7" fromLane="1" toLane="1" dir="s" state="M"/>
    <connection from=":n6_9" to="6to3" fromLane="0" toLane="1" via=":n6_12_0" dir="l" state="m"/>
    <connection from=":n6_12" to="6to3" fromLane="0" toLane="1" dir="l" state="M"/>
    <connection from=":n6_10" to="6to1" fromLane="0" toLane="1" via=":n6_13_0" dir="t" state="m"/>
    <connection from=":n6_13" to="6to1" fromLane="0" toLane="1" dir="t" state="M"/>
    <connection from=":n7_0" to="7to6" fromLane="0" toLane="0" dir="s" state="M"/>
    <connection from=":n7_0" to="7to6" fromLane="1" toLane="1" dir="s" state="M"/>
    <connection from=":n7_2" to="7to5" fromLane="0" toLane="1" via=":n7_11_0" dir="l" state="m"/>
    <connection from=":n7_11" to="7to5" fromLane="0" toLane="1" dir="l" state="M"/>
    <connection from=":n7_3" to="7to8" fromLane="0" toLane="1" via=":n7_12_0" dir="t" state="m"/>
    <connection from=":n7_12" to="7to8" fromLane="0" toLane="1" dir="t" state="M"/>
    <connection from=":n7_4" to="7to8" fromLane="0" toLane="0" dir="r" state="M"/>
    <connection from=":n7_5" to="7to6" fromLane="0" toLane="1" dir="l" state="M"/>
    <connection from=":n7_6" to="7to5" fromLane="0" toLane="1" dir="t" state="M"/>
    <connection from=":n7_7" to="7to5" fromLane="0" toLane="0" dir="r" state="M"/>
    <connection from=":n7_8" to="7to8" fromLane="0" toLane="0" dir="s" state="M"/>
    <connection from=":n7_8" to="7to8" fromLane="1" toLane="1" dir="s" state="M"/>
    <connection from=":n7_10" to="7to6" fromLane="0" toLane="1" via=":n7_13_0" dir="t" state="m"/>
    <connection from=":n7_13" to="7to6" fromLane="0" toLane="1" dir="t" state="M"/>
    <connection from=":n8_0" to="8to7" fromLane="0" toLane="0" dir="r" state="M"/>
    <connection from=":n8_1" to="8to2" fromLane="0" toLane="1" dir="l" state="M"/>
    <connection from=":n8_2" to="8to4" fromLane="0" toLane="1" dir="t" state="M"/>
    <connection from=":n8_3" to="8to4" fromLane="0" toLane="0" dir="r" state="M"/>
    <connection from=":n8_4" to="8to7" fromLane="0" toLane="0" dir="s" state="M"/>
    <connection from=":n8_4" to="8to7" fromLane="1" toLane="1" dir="s" state="M"/>
    <connection from=":n8_6" to="8to2" fromLane="0" toLane="1" via=":n8_11_0" dir="t" state="m"/>
    <connection from=":n8_11" to="8to2" fromLane="0" toLane="1" dir="t" state="M"/>
    <connection from=":n8_7" to="8to2" fromLane="0" toLane="0" dir="s" state="M"/>
    <connection from=":n8_7" to="8to2" fromLane="1" toLane="1" dir="s" state="M"/>
    <connection from=":n8_9" to="8to4" fromLane="0" toLane="1" via=":n8_12_0" dir="l" state="m"/>
    <connection from=":n8_12" to="8to4" fromLane="0" toLane="1" dir="l" state="M"/>
    <connection from=":n8_10" to="8to7" fromLane="0" toLane="1" via=":n8_13_0" dir="t" state="m"/>
    <connection from=":n8_13" to="8to7" fromLane="0" toLane="1" dir="t" state="M"/>

</net>
